Circuit: * C:\Users\micha\OneDrive - Instituto Tecnologico y de Estudios Superiores de Monterrey\Segundo semestre\Analisis de sistemas electricos en sistemas ingenieriles\Reto\LT\100 ms carga.asc

Direct Newton iteration for .op point succeeded.

Date: Mon Apr 27 13:04:45 2020
Total elapsed time: 0.042 seconds.

tnom = 27
temp = 27
method = modified trap
totiter = 2087
traniter = 2084
tranpoints = 1043
accept = 1043
rejected = 0
matrix size = 5
fillins = 0
solver = Normal
Matrix Compiler1: 150 bytes object code size  0.1/0.1/[0.0]
Matrix Compiler2:      27 opcodes  0.1/[0.0]/0.1

