Circuit: * C:\Users\micha\OneDrive - Instituto Tecnologico y de Estudios Superiores de Monterrey\Segundo semestre\Analisis de sistemas electricos en sistemas ingenieriles\Reto\LT\Draft1.asc

Direct Newton iteration for .op point succeeded.

Date: Mon Apr 27 13:02:44 2020
Total elapsed time: 0.039 seconds.

tnom = 27
temp = 27
method = modified trap
totiter = 2091
traniter = 2088
tranpoints = 1045
accept = 1045
rejected = 0
matrix size = 5
fillins = 0
solver = Normal
Matrix Compiler1: 150 bytes object code size  0.1/0.0/[0.0]
Matrix Compiler2: off  [0.0]/0.1/0.0

